Version 4
SHEET 1 4756 5888
WIRE 192 1136 -672 1136
WIRE 480 1136 192 1136
WIRE 656 1136 480 1136
WIRE 800 1136 656 1136
WIRE 1120 1152 944 1152
WIRE 1296 1152 1184 1152
WIRE 1456 1152 1296 1152
WIRE 1664 1152 1456 1152
WIRE 1904 1152 2000 1104
WIRE 1904 1152 1664 1152
WIRE 480 1184 480 1136
WIRE 656 1184 656 1136
WIRE 480 1312 480 1264
WIRE 576 1312 480 1312
WIRE 656 1312 656 1248
WIRE 656 1312 576 1312
WIRE 800 1360 800 1136
WIRE 848 1360 800 1360
WIRE 944 1360 944 1152
WIRE 944 1360 912 1360
WIRE 192 1376 192 1136
WIRE 576 1392 576 1312
WIRE -672 1472 -672 1136
WIRE 848 1520 848 1360
WIRE 912 1520 912 1360
WIRE 1456 1536 1456 1152
WIRE 1296 1648 1296 1152
WIRE 576 1664 576 1456
WIRE 800 1664 576 1664
WIRE 848 1664 848 1600
WIRE 848 1664 800 1664
WIRE 912 1664 912 1600
WIRE 944 1664 912 1664
WIRE -320 1680 -464 1680
WIRE -208 1680 -320 1680
WIRE -112 1680 80 1376
WIRE -112 1680 -208 1680
WIRE 0 1680 -112 1680
WIRE 1664 1728 1664 1152
WIRE 1904 1728 1904 1152
WIRE -320 1744 -320 1680
WIRE -208 1744 -208 1680
WIRE 192 1744 192 1456
WIRE 800 1760 800 1664
WIRE 0 1808 0 1680
WIRE 32 1808 0 1808
WIRE 560 1840 352 1840
WIRE 576 1840 560 1840
WIRE 688 1840 656 1840
WIRE 752 1840 688 1840
WIRE -320 1872 -320 1824
WIRE -208 1872 -208 1808
WIRE -208 1872 -320 1872
WIRE -144 1872 -144 1360
WIRE -144 1872 -208 1872
WIRE 32 1872 -144 1872
WIRE 32 1936 -192 1936
WIRE -192 1968 -192 1936
WIRE 416 1968 352 1968
WIRE 800 1968 800 1856
WIRE 800 1968 496 1968
WIRE 1664 1984 1664 1808
WIRE 1664 1984 1600 1984
WIRE 32 2000 -16 2000
WIRE 560 2016 560 1840
WIRE 688 2064 688 1840
WIRE 800 2064 800 1968
WIRE -192 2080 -192 2048
WIRE -16 2080 -16 2000
WIRE -16 2080 -192 2080
WIRE -192 2112 -192 2080
WIRE 560 2112 560 2080
WIRE 560 2112 464 2112
WIRE 560 2128 560 2112
WIRE 464 2144 464 2112
WIRE 464 2240 464 2208
WIRE 560 2240 560 2208
WIRE 560 2240 464 2240
WIRE -464 2272 -464 1680
WIRE 1600 2272 1600 1984
WIRE 1600 2272 -464 2272
WIRE 1664 2320 1664 1984
WIRE -672 2432 -672 1552
WIRE -192 2432 -192 2176
WIRE -192 2432 -672 2432
WIRE 144 2432 -192 2432
WIRE 192 2432 192 2064
WIRE 192 2432 144 2432
WIRE 560 2432 560 2240
WIRE 560 2432 192 2432
WIRE 688 2432 688 2144
WIRE 688 2432 560 2432
WIRE 800 2432 800 2144
WIRE 800 2432 688 2432
WIRE 944 2432 944 1664
WIRE 944 2432 800 2432
WIRE 1296 2432 1296 1712
WIRE 1296 2432 944 2432
WIRE 1456 2432 1456 1600
WIRE 1456 2432 1296 2432
WIRE 1664 2432 1664 2400
WIRE 1664 2432 1456 2432
WIRE 1904 2432 1904 1808
WIRE 1904 2432 1664 2432
WIRE 144 2448 144 2432
FLAG 144 2448 0
FLAG 2000 1104 VOUT
FLAG 80 1376 FB
FLAG -144 1360 Comp
SYMBOL cap -208 2112 R0
SYMATTR InstName C15
SYMATTR Value 4n7
SYMATTR SpiceLine Rser=0.03
SYMBOL res -208 1952 R0
SYMATTR InstName R24
SYMATTR Value 5k
SYMBOL nmos 752 1760 R0
WINDOW 3 -99 -21 Left 2
SYMATTR Value STW11NM80
SYMATTR InstName M2
SYMBOL res 560 1856 R270
WINDOW 0 32 56 VTop 2
WINDOW 3 0 56 VBottom 2
SYMATTR InstName R28
SYMATTR Value 1
SYMBOL res 784 2048 R0
SYMATTR InstName R29
SYMATTR Value 1
SYMBOL res 672 2048 R0
SYMATTR InstName R30
SYMATTR Value 33k
SYMBOL ind2 832 1504 R0
WINDOW 0 -42 2 Left 2
WINDOW 3 -59 -29 Left 2
SYMATTR InstName L3
SYMATTR Value 20µ
SYMATTR Type ind
SYMATTR SpiceLine Rser=0.01
SYMBOL ind2 928 1616 R180
WINDOW 0 -24 150 Left 2
WINDOW 3 -58 114 Left 2
SYMATTR InstName L4
SYMATTR Value 10µ
SYMATTR Type ind
SYMATTR SpiceLine Rser=0.01
SYMBOL diode 1120 1168 R270
WINDOW 0 32 32 VTop 2
WINDOW 3 0 32 VBottom 2
SYMATTR InstName D2
SYMATTR Value RFN5BM3S
SYMBOL cap 1280 1648 R0
SYMATTR InstName C18
SYMATTR Value 470µ
SYMATTR SpiceLine Rser=0.01
SYMBOL res 1648 2304 R0
SYMATTR InstName R31
SYMATTR Value 15k
SYMBOL res 1648 1712 R0
SYMATTR InstName R32
SYMATTR Value 11k
SYMBOL voltage -672 1456 R0
WINDOW 123 0 0 Left 2
WINDOW 39 24 124 Left 2
SYMATTR SpiceLine Rser=0.01
SYMATTR InstName V2
SYMATTR Value 20
SYMBOL PowerProducts\\LT1243 192 1904 R0
SYMATTR InstName U1
SYMBOL res 1888 1712 R0
SYMATTR InstName R2
SYMATTR Value 80k
SYMBOL res -304 1840 R180
WINDOW 0 36 76 Left 2
WINDOW 3 36 40 Left 2
SYMATTR InstName R3
SYMATTR Value 100k
SYMBOL res 464 1168 R0
SYMATTR InstName R4
SYMATTR Value 22k
SYMBOL diode 592 1456 R180
WINDOW 0 24 64 Left 2
WINDOW 3 24 0 Left 2
SYMATTR InstName D1
SYMBOL cap 640 1184 R0
SYMATTR InstName C1
SYMATTR Value 2n2
SYMBOL cap -224 1744 R0
SYMATTR InstName C2
SYMATTR Value 47n
SYMBOL cap 1440 1536 R0
SYMATTR InstName C4
SYMATTR Value 47p
SYMBOL zener 576 2080 R180
WINDOW 0 24 64 Left 2
WINDOW 3 24 0 Left 2
SYMATTR InstName D3
SYMATTR Value TFZV12B
SYMATTR Description Schottky diode
SYMATTR Type schottky
SYMBOL res 544 2112 R0
SYMATTR InstName R1
SYMATTR Value 1
SYMBOL cap 448 2144 R0
SYMATTR InstName C5
SYMATTR Value 100p
SYMBOL res 176 1360 R0
SYMATTR InstName R6
SYMATTR Value 1
SYMBOL res 512 1952 R90
WINDOW 0 0 56 VBottom 2
WINDOW 3 32 56 VTop 2
SYMATTR InstName R5
SYMATTR Value 1k
TEXT 984 2568 Left 2 !.tran 0 10000ms 0 startup uic
TEXT 632 1032 Left 2 !K L3 L4 0.98
LINE Normal 736 1648 736 1648 2
LINE Normal 736 1648 736 1648 2
LINE Normal 736 1648 736 1648 2
LINE Normal 880 1648 880 1456 2
