Version 4
SHEET 1 4756 5888
WIRE 208 1296 -368 1296
WIRE 800 1296 208 1296
WIRE 1088 1296 944 1296
WIRE 1296 1296 1152 1296
WIRE 1552 1296 1296 1296
WIRE 1840 1296 1552 1296
WIRE 1296 1408 1296 1296
WIRE 800 1488 800 1296
WIRE 848 1488 800 1488
WIRE 944 1488 944 1296
WIRE 944 1488 912 1488
WIRE -368 1504 -368 1296
WIRE 848 1568 800 1568
WIRE 944 1568 912 1568
WIRE 944 1728 944 1568
WIRE 1296 1728 1296 1472
WIRE 1296 1728 944 1728
WIRE 1744 1728 1296 1728
WIRE 208 1888 208 1296
WIRE 800 1904 800 1568
WIRE -368 1952 -368 1584
WIRE -336 1952 -368 1952
WIRE 48 1952 -336 1952
WIRE 1552 1968 1552 1296
WIRE 1552 1968 1216 1968
WIRE 496 1984 368 1984
WIRE 640 1984 576 1984
WIRE 752 1984 640 1984
WIRE -160 2016 -272 2016
WIRE 48 2016 -160 2016
WIRE -160 2032 -160 2016
WIRE -272 2048 -272 2016
WIRE 1216 2064 1216 1968
WIRE 1552 2064 1552 1968
WIRE 48 2080 -16 2080
WIRE 496 2112 368 2112
WIRE 800 2112 800 2000
WIRE 800 2112 576 2112
WIRE 48 2144 16 2144
WIRE 800 2192 800 2112
WIRE 1360 2192 1280 2192
WIRE 1424 2192 1360 2192
WIRE 1552 2192 1552 2144
WIRE 1552 2192 1488 2192
WIRE -160 2224 -160 2112
WIRE -16 2224 -16 2080
WIRE -16 2224 -160 2224
WIRE 640 2224 640 1984
WIRE -160 2240 -160 2224
WIRE 1360 2272 1360 2192
WIRE 1552 2320 1552 2192
WIRE 1552 2320 1408 2320
WIRE -160 2384 -160 2320
WIRE 16 2384 16 2144
WIRE 16 2384 -160 2384
WIRE 1552 2384 1552 2320
WIRE -160 2432 -160 2384
WIRE -272 2528 -272 2128
WIRE 944 2528 -272 2528
WIRE 1216 2528 1216 2144
WIRE 1216 2528 1136 2528
WIRE 1360 2608 1360 2384
WIRE 1552 2608 1552 2464
WIRE 1552 2608 1360 2608
WIRE 1744 2608 1744 1728
WIRE 1744 2608 1552 2608
WIRE 944 2624 832 2624
WIRE 1280 2624 1280 2192
WIRE 1280 2624 1136 2624
WIRE -336 2720 -336 1952
WIRE -160 2720 -160 2496
WIRE -160 2720 -336 2720
WIRE 208 2720 208 2208
WIRE 208 2720 -160 2720
WIRE 320 2720 208 2720
WIRE 640 2720 640 2304
WIRE 640 2720 320 2720
WIRE 800 2720 800 2272
WIRE 800 2720 640 2720
WIRE 832 2720 832 2624
WIRE 832 2720 800 2720
WIRE 1744 2720 1744 2608
WIRE 1744 2720 832 2720
WIRE 320 2768 320 2720
FLAG 320 2768 0
SYMBOL cap -176 2432 R0
SYMATTR InstName C15
SYMATTR Value 4n8
SYMATTR SpiceLine Rser=0.03
SYMBOL res -176 2224 R0
SYMATTR InstName R24
SYMATTR Value 5000
SYMBOL nmos 752 1904 R0
WINDOW 3 -99 -21 Left 2
SYMATTR Value STW11NM80
SYMATTR InstName M2
SYMBOL res 480 2000 R270
WINDOW 0 32 56 VTop 2
WINDOW 3 0 56 VBottom 2
SYMATTR InstName R28
SYMATTR Value 1
SYMBOL res 784 2176 R0
SYMATTR InstName R29
SYMATTR Value 0.37
SYMBOL res 624 2208 R0
SYMATTR InstName R30
SYMATTR Value 33k
SYMBOL ind2 832 1472 R0
WINDOW 0 -42 2 Left 2
WINDOW 3 -59 -29 Left 2
SYMATTR InstName L3
SYMATTR Value 1500µ
SYMATTR Type ind
SYMATTR SpiceLine Rser=0.01
SYMBOL ind2 928 1584 R180
WINDOW 0 -24 150 Left 2
WINDOW 3 -58 114 Left 2
SYMATTR InstName L4
SYMATTR Value 100µ
SYMATTR Type ind
SYMATTR SpiceLine Rser=0.01
SYMBOL diode 1088 1312 R270
WINDOW 0 32 32 VTop 2
WINDOW 3 0 32 VBottom 2
SYMATTR InstName D2
SYMATTR Value RFN5BM3S
SYMBOL cap 1280 1408 R0
WINDOW 3 26 59 Left 2
SYMATTR Value 22µ
SYMATTR InstName C18
SYMATTR SpiceLine Rser=0.01
SYMBOL voltage -368 1488 R0
WINDOW 123 0 0 Left 2
WINDOW 39 0 0 Left 2
SYMATTR InstName V1
SYMATTR Value 20
SYMBOL PowerProducts\\LT1243 208 2048 R0
SYMATTR InstName U1
SYMBOL res -256 2144 R180
WINDOW 0 36 76 Left 2
WINDOW 3 36 40 Left 2
SYMATTR InstName R1
SYMATTR Value 500
SYMBOL Optos\\PC817A 1040 2576 M0
SYMATTR InstName U2
SYMBOL res 1536 2048 R0
SYMATTR InstName R2
SYMATTR Value 10k
SYMBOL res 1536 2368 R0
SYMATTR InstName R3
SYMATTR Value 500
SYMBOL res 1200 2048 R0
SYMATTR InstName R4
SYMATTR Value 500k
SYMBOL TL431 1360 2320 M0
SYMATTR InstName U3
SYMBOL cap 1488 2176 R90
WINDOW 0 0 32 VBottom 2
WINDOW 3 32 32 VTop 2
SYMATTR InstName C2
SYMATTR Value 1µ
SYMBOL res -176 2016 R0
SYMATTR InstName R7
SYMATTR Value 100k
SYMBOL res 592 2096 R90
WINDOW 0 0 56 VBottom 2
WINDOW 3 32 56 VTop 2
SYMATTR InstName R5
SYMATTR Value 1k
TEXT 992 2768 Left 2 !.tran 0 30ms 0 startup uic
TEXT -360 1216 Left 3 ;OFFLINE FLYBACK SMPS CCM (DCM at uk Mains)
TEXT 424 1224 Left 4 !K L3 L4 0.98
LINE Normal 736 1648 736 1648 2
LINE Normal 736 1648 736 1648 2
LINE Normal 736 1648 736 1648 2
LINE Normal 880 1648 880 1456 2
